/*--------------------------------*- C++ -*----------------------------------*\
  =========                 |
  \\      /  F ield         | OpenFOAM
   \\    /   O peration     | Version:  v2512
    \\  /    A nd           |
     \\/     M anipulation  |
\*---------------------------------------------------------------------------*/
FoamFile
{
    version     2.0;
    format      ascii;
    class       dictionary;
    object      surfaceFeatureExtractDict;
}

nose.stl
{
    extractionMethod    extractFromSurface;

    extractFromSurfaceCoeffs
    {
        includedAngle   150;
    }

    writeObj    yes;
}

fuselage.stl
{
    extractionMethod    extractFromSurface;

    extractFromSurfaceCoeffs
    {
        includedAngle   150;
    }

    writeObj    yes;
}

bodyFins.stl
{
    extractionMethod    extractFromSurface;

    extractFromSurfaceCoeffs
    {
        includedAngle   145;
    }

    writeObj    yes;
}

boosterFins.stl
{
    extractionMethod    extractFromSurface;

    extractFromSurfaceCoeffs
    {
        includedAngle   145;
    }

    writeObj    yes;
}