/*--------------------------------*- C++ -*----------------------------------*\
  =========                 |
  \\      /  F ield         | OpenFOAM: The Open Source CFD Toolbox
   \\    /   O peration     | Website:  https://openfoam.org
    \\  /    A nd           | Version:  13
     \\/     M anipulation  |
\*---------------------------------------------------------------------------*/
FoamFile
{
    version     2.0;
    format      ascii;
    class       dictionary;
    object      fvSchemes;
}
// * * * * * * * * * * * * * * * * * * * * * * * * * * * * * * * * * * * * * //

ddtSchemes
{
    default         Euler; // Simple and robust for starting. 
}

gradSchemes
{
    default         Gauss linear;
    grad(p)         Gauss linear;
    grad(U)         Gauss linear;
}

divSchemes
{
    default         none;

    // Use 'limitedLinearV' for vectors (U) to maintain stability in shocks
    div(phi,U)      Gauss limitedLinearV 1;

    // Energy and Pressure fields
    div(phi,e)      Gauss limitedLinear 1;
    div(phi,K)      Gauss limitedLinear 1;
    div(phi,p)      Gauss limitedLinear 1;

    // Turbulence: Upwind is highly recommended for stability in high-speed flow
    div(phi,k)      Gauss upwind;
    div(phi,omega)  Gauss upwind;

    // Viscous terms
    div(((rho*nuEff)*dev2(T(grad(U))))) Gauss linear;
}

laplacianSchemes
{
    default         Gauss linear corrected;
}

interpolationSchemes
{
    default         linear;
}

snGradSchemes
{
    default         corrected;
}

wallDist
{
    method meshWave;
}