FoamFile
{
    version     2.0;
    format      ascii;
    class       dictionary;
    location    "constant";
    object      momentumTransport;
}
// * * * * * * * * * * * * * * * * * * * * * * * * * * * * * * * * * * * * * //

simulationType  RAS;

RAS
{
    model           kOmegaSST;
    turbulence      on;
    printCoeffs     on;
    kMin            1e-8;
    omegaMin        1e-8;
}
