FoamFile
{
    version     2.0;
    format      ascii;
    class       dictionary;
    location    "constant";
    object      thermophysicalProperties;
}
// * * * * * * * * * * * * * * * * * * * * * * * * * * * * * * * * * * * * * //

// v2512: file is thermophysicalProperties (not physicalProperties which is
// a Foundation v13 rename). Content is identical.

thermoType
{
    type            hePsiThermo;
    mixture         pureMixture;
    transport       sutherland;
    thermo          hConst;
    equationOfState perfectGas;
    specie          specie;
    energy          sensibleEnthalpy;
}

mixture
{
    specie
    {
        molWeight       28.97;
    }
    thermodynamics
    {
        Cp              1005;
        Hf              0;
    }
    transport
    {
        As              1.458e-06;
        Ts              110.4;
    }
}
