FoamFile
{
    version     2.0;
    format      ascii;
    class       dictionary;
    object      fvConstraints;
}
// * * * * * * * * * * * * * * * * * * * * * * * * * * * * * * * * * * * * * //

limitp
{
    type        limitPressure;
    min         5000;
    max         5000000;
}

limitT
{
    type            limitTemperature;
    cellZone        all;
    min             100;
    max             6000;
}

// ************************************************************************* //
