FoamFile
{
    version     2.0;
    format      ascii;
    class       dictionary;
    object      fvSchemes;
}
// * * * * * * * * * * * * * * * * * * * * * * * * * * * * * * * * * * * * * //

ddtSchemes
{
    default         Euler;
}

gradSchemes
{
    default         cellLimited Gauss linear 1;
    grad(U)         cellLimited Gauss linear 1;
    grad(p)         cellLimited Gauss linear 1;
}

divSchemes
{
    default         none;

    div(phi,U)      Gauss limitedLinearV 1;
    div(phi,e)      Gauss upwind;
    div(phi,h)      Gauss upwind;
    div(phi,K)      Gauss upwind;
    div(phi,k)      Gauss upwind;
    div(phi,omega)  Gauss upwind;
    div(phi,p)      Gauss upwind;
    div(((rho*nuEff)*dev2(T(grad(U))))) Gauss linear;
}

laplacianSchemes
{
    default         Gauss linear limited 0.333;
}

snGradSchemes
{
    default         limited 0.333;
}

interpolationSchemes
{
    default         linear;
}

wallDist
{
    method meshWave;
}
